@<TRIPOS>MOLECULE
lig
 36 38 0 0 0
SMALL
GASTEIGER

@<TRIPOS>ATOM
      1 C           1.2408   -0.6245   -0.5270 C.ar    1  LIG11      -0.0590
      2 C           0.7879    0.1325   -1.6589 C.ar    1  LIG11      -0.0426
      3 C           0.9566    1.5571   -1.6313 C.ar    1  LIG11       0.0545
      4 C           1.5615    2.1889   -0.4954 C.ar    1  LIG11       0.0735
      5 C           2.0198    1.4209    0.6255 C.ar    1  LIG11       0.0545
      6 C           1.8544   -0.0062    0.6221 C.ar    1  LIG11      -0.0426
      7 C           1.7578    3.6338   -0.6579 C.2     1  LIG11       0.2511
      8 N           1.6696    4.5224    0.4614 N.am    1  LIG11      -0.2813
      9 C           1.8462    5.8751    0.4509 C.ar    1  LIG11       0.0384
     10 C           1.7991    6.4858    1.7509 C.ar    1  LIG11      -0.0222
     11 C           1.9518    7.8950    1.8258 C.ar    1  LIG11       0.0314
     12 N           2.1375    8.5762    0.6339 N.ar    1  LIG11      -0.2400
     13 C           2.1989    8.0320   -0.6374 C.ar    1  LIG11       0.1266
     14 C           2.0528    6.6317   -0.7579 C.ar    1  LIG11      -0.0003
     15 N           2.3901    8.8052   -1.7149 N.am    1  LIG11      -0.2701
     16 C           2.5257   10.1307   -1.5729 C.2     1  LIG11       0.2228
     17 O           2.4739   10.6459   -0.4352 O.2     1  LIG11      -0.2751
     18 C           2.7340   10.9732   -2.7470 C.3     1  LIG11       0.0535
     19 O           2.0060    4.0967   -1.7922 O.2     1  LIG11      -0.2698
     20 H           1.1243   -1.6378   -0.5356 H       1  LIG11       0.0618
     21 H           2.1639   -0.5691    1.4144 H       1  LIG11       0.0632
     22 CL          2.7485    2.1881    1.9394 Cl      1  LIG11      -0.0827
     23 H           0.3582   -0.3291   -2.4606 H       1  LIG11       0.0632
     24 CL          0.4419    2.4909   -2.9386 Cl      1  LIG11      -0.0827
     25 H           1.4621    4.1194    1.3190 H       1  LIG11       0.1551
     26 H           1.6605    5.9253    2.5918 H       1  LIG11       0.0651
     27 H           1.9259    8.3856    2.7197 H       1  LIG11       0.0831
     28 H           2.0922    6.1728   -1.6680 H       1  LIG11       0.0671
     29 H           2.4303    8.4054   -2.5978 H       1  LIG11       0.1562
     30 C           4.1116   11.6336   -2.6629 C.3     1  LIG11       0.0458
     31 C           2.8565   12.4346   -2.3108 C.3     1  LIG11      -0.0235
     32 CL          4.9156   11.1253   -1.1857 Cl      1  LIG11      -0.1210
     33 H           2.7093   10.5948   -3.7689 H       1  LIG11       0.0409
     34 H           2.5952   13.0858   -3.1449 H       1  LIG11       0.0287
     35 H           2.6873   12.6534   -1.2565 H       1  LIG11       0.0287
     36 H           4.6056   11.8848   -3.6015 H       1  LIG11       0.0473
@<TRIPOS>BOND
     1     1     2   ar
     2     2     3   ar
     3     3     4   ar
     4     4     5   ar
     5     5     6   ar
     6     6     1   ar
     7     4     7    1
     8    10    11   ar
     9    13    14   ar
    10     9    10   ar
    11    14     9   ar
    12    16    18    1
    13     7    19    2
    14    16    17    2
    15     6    21    1
    16     1    20    1
    17     2    23    1
    18     5    22    1
    19     3    24    1
    20    10    26    1
    21    11    27    1
    22    11    12   ar
    23    12    13   ar
    24    14    28    1
    25    13    15    1
    26    15    16   am
    27    15    29    1
    28     7     8   am
    29     8     9    1
    30     8    25    1
    31    18    30    1
    32    30    31    1
    33    18    31    1
    34    18    33    1
    35    31    34    1
    36    31    35    1
    37    30    36    1
    38    30    32    1
